output/Combined/Voltages.csv
Bus, BasekV, Node1, Magnitude1, Angle1, pu1, Node2, Magnitude2, Angle2, pu2, Node3, Magnitude3, Angle3, pu3
"SUBSTATION", 11, 1,    6333.57,   -0.2,   0.99728, 2,    6333.57, -120.2,   0.99728, 3,    6333.57,  119.8,   0.99728
"3_WAY_KHARWADA", 11, 1,    6310.08,   -0.2,   0.99358, 2,    6310.08, -120.2,   0.99358, 3,    6310.08,  119.8,   0.99358
"KONAR_GAUNEM_DTC", 11, 1,    6327.93,   -0.2,   0.99639, 2,    6327.93, -120.2,   0.99639, 3,    6327.93,  119.8,   0.99639
"RAM_MANDIR", 11, 1,     6307.3,   -0.2,   0.99314, 2,     6307.3, -120.2,   0.99314, 3,     6307.3,  119.8,   0.99314
"DEMPO_DTC", 11, 1,    6303.01,   -0.2,   0.99247, 2,    6303.01, -120.2,   0.99247, 3,    6303.01,  119.8,   0.99247
"RB_ENGG", 11, 1,    6301.32,   -0.2,    0.9922, 2,    6301.32, -120.2,    0.9922, 3,    6301.32,  119.8,    0.9922
"UNDIR_BAKALE", 11, 1,    6299.63,   -0.2,   0.99193, 2,    6299.63, -120.2,   0.99193, 3,    6299.63,  119.8,   0.99193
"MULEBHAT", 11, 1,    6296.56,   -0.2,   0.99145, 2,    6296.56, -120.2,   0.99145, 3,    6296.56,  119.8,   0.99145
"MARUTI_TEMPLE", 11, 1,    6292.41,   -0.2,    0.9908, 2,    6292.41, -120.2,    0.9908, 3,    6292.41,  119.8,    0.9908
"CHIKALI", 11, 1,    6289.29,   -0.2,   0.99031, 2,    6289.29, -120.2,   0.99031, 3,    6289.29,  119.8,   0.99031
"ADPAI", 11, 1,    6286.43,   -0.2,   0.98986, 2,    6286.43, -120.2,   0.98986, 3,    6286.43,  119.8,   0.98986
"DURBHAT", 11, 1,    6283.68,   -0.2,   0.98942, 2,    6283.68, -120.2,   0.98942, 3,    6283.68,  119.8,   0.98942
"SEWERAGE", 11, 1,    6283.66,   -0.2,   0.98942, 2,    6283.66, -120.2,   0.98942, 3,    6283.66,  119.8,   0.98942
"KASWADA", 11, 1,    6282.57,   -0.2,   0.98925, 2,    6282.57, -120.2,   0.98925, 3,    6282.57,  119.8,   0.98925
"LONDIYAR_WADEM", 11, 1,    6281.77,   -0.2,   0.98912, 2,    6281.77, -120.2,   0.98912, 3,    6281.77,  119.8,   0.98912
"3_WAY_TALAULIM", 11, 1,    6281.74,   -0.2,   0.98912, 2,    6281.74, -120.2,   0.98912, 3,    6281.74,  119.8,   0.98912
"NEW_TALAULIM", 11, 1,     6281.6,   -0.2,   0.98909, 2,     6281.6, -120.2,   0.98909, 3,     6281.6,  119.8,   0.98909
"WADI", 11, 1,     6281.2,   -0.2,   0.98903, 2,     6281.2, -120.2,   0.98903, 3,     6281.2,  119.8,   0.98903
"TALAULIM", 11, 1,    6281.52,   -0.2,   0.98908, 2,    6281.52, -120.2,   0.98908, 3,    6281.52,  119.8,   0.98908
"MAHALAKSHMI_NAGAR", 11, 1,    6281.43,   -0.2,   0.98907, 2,    6281.43, -120.2,   0.98907, 3,    6281.43,  119.8,   0.98907
"PAUNWADA", 11, 1,    6281.67,   -0.2,   0.98911, 2,    6281.67, -120.2,   0.98911, 3,    6281.67,  119.8,   0.98911
"3_WAY_DON_KHAMB", 11, 1,     6281.9,   -0.2,   0.98914, 2,     6281.9, -120.2,   0.98914, 3,     6281.9,  119.8,   0.98914
"KAVLE_MATH", 11, 1,    6282.96,   -0.2,   0.98931, 2,    6282.96, -120.2,   0.98931, 3,    6282.96,  119.8,   0.98931
"SHANTADURGA_OLD", 11, 1,    6283.79,   -0.2,   0.98944, 2,    6283.79, -120.2,   0.98944, 3,    6283.79,  119.8,   0.98944
"3_WAY_SHANTADURGA", 11, 1,    6283.83,   -0.2,   0.98945, 2,    6283.83, -120.2,   0.98945, 3,    6283.83,  119.8,   0.98945
"SANATAN_1", 11, 1,    6287.28,   -0.2,   0.98999, 2,    6287.28, -120.2,   0.98999, 3,    6287.28,  119.8,   0.98999
"SANATAN_2", 11, 1,    6287.43,   -0.2,   0.99001, 2,    6287.43, -120.2,   0.99001, 3,    6287.43,  119.8,   0.99001
"RAMNATHI_DEVASTHAN", 11, 1,    6288.04,   -0.2,   0.99011, 2,    6288.04, -120.2,   0.99011, 3,    6288.04,  119.8,   0.99011
"RAMNATHI", 11, 1,    6288.93,   -0.2,   0.99025, 2,    6288.93, -120.2,   0.99025, 3,    6288.93,  119.8,   0.99025
"3_WAY_RAMNATHI", 11, 1,    6291.58,   -0.2,   0.99067, 2,    6291.58, -120.2,   0.99067, 3,    6291.58,  119.8,   0.99067
"RPRS_SCHOOL", 11, 1,    6294.01,   -0.2,   0.99105, 2,    6294.01, -120.2,   0.99105, 3,    6294.01,  119.8,   0.99105
"TOLULEM", 11, 1,     6299.1,   -0.2,   0.99185, 2,     6299.1, -120.2,   0.99185, 3,     6299.1,  119.8,   0.99185
"KHARWADA", 11, 1,    6308.71,   -0.2,   0.99336, 2,    6308.71, -120.2,   0.99336, 3,    6308.71,  119.8,   0.99336
"SHANTADURGA_NEW", 11, 1,    6283.78,   -0.2,   0.98944, 2,    6283.78, -120.2,   0.98944, 3,    6283.78,  119.8,   0.98944
"GALSHIRE", 11, 1,    6283.28,   -0.2,   0.98936, 2,    6283.28, -120.2,   0.98936, 3,    6283.28,  119.8,   0.98936
"3_WAY_GALSHIRE", 11, 1,    6281.92,   -0.2,   0.98915, 2,    6281.92, -120.2,   0.98915, 3,    6281.92,  119.8,   0.98915
"3_WAY_HARISH_BAR", 11, 1,    6281.53,   -0.2,   0.98908, 2,    6281.53, -120.2,   0.98908, 3,    6281.53,  119.8,   0.98908
"SNEH_MANDIR", 11, 1,    6281.21,   -0.2,   0.98903, 2,    6281.21, -120.2,   0.98903, 3,    6281.21,  119.8,   0.98903
"RAJENDRA_TALAK", 11, 1,    6280.91,   -0.2,   0.98899, 2,    6280.91, -120.2,   0.98899, 3,    6280.91,  119.8,   0.98899
"RITESH_DEVELOPERS", 11, 1,    6280.74,   -0.2,   0.98896, 2,    6280.74, -120.2,   0.98896, 3,    6280.74,  119.8,   0.98896
"VENKATESH_LEELA", 11, 1,     6280.5,   -0.2,   0.98892, 2,     6280.5, -120.2,   0.98892, 3,     6280.5,  119.8,   0.98892
"PERIGOL", 11, 1,    6280.22,   -0.2,   0.98888, 2,    6280.22, -120.2,   0.98888, 3,    6280.22,  119.8,   0.98888
"MANMOHAN_SINGH", 11, 1,    6280.18,   -0.2,   0.98887, 2,    6280.18, -120.2,   0.98887, 3,    6280.18,  119.8,   0.98887
"DHUMRE", 11, 1,    6280.29,   -0.2,   0.98889, 2,    6280.29, -120.2,   0.98889, 3,    6280.29,  119.8,   0.98889
"3_WAY_ROYAL_ENFIELD", 11, 1,    6280.68,   -0.2,   0.98895, 2,    6280.68, -120.2,   0.98895, 3,    6280.68,  119.8,   0.98895
"SHASHIKALA_PAI", 11, 1,    6281.38,   -0.2,   0.98906, 2,    6281.38, -120.2,   0.98906, 3,    6281.38,  119.8,   0.98906
"KAPILESHWARI", 11, 1,    6281.27,   -0.2,   0.98904, 2,    6281.27, -120.2,   0.98904, 3,    6281.27,  119.8,   0.98904
"3_WAY_RATHAMAL", 11, 1,    6281.16,   -0.2,   0.98903, 2,    6281.16, -120.2,   0.98903, 3,    6281.16,  119.8,   0.98903
"MATRUCHAYA", 11, 1,     6280.9,   -0.2,   0.98899, 2,     6280.9, -120.2,   0.98899, 3,     6280.9,  119.8,   0.98899
"3_WAY_SHANTINAGAR", 11, 1,    6280.85,   -0.2,   0.98898, 2,    6280.85, -120.2,   0.98898, 3,    6280.85,  119.8,   0.98898
"VAMNESHWAR", 11, 1,     6280.7,   -0.2,   0.98895, 2,     6280.7, -120.2,   0.98895, 3,     6280.7,  119.8,   0.98895
"GOLDEN_PROPERTIES", 11, 1,    6280.85,   -0.2,   0.98898, 2,    6280.85, -120.2,   0.98898, 3,    6280.85,  119.8,   0.98898
"RITESH", 11, 1,    6280.85,   -0.2,   0.98898, 2,    6280.85, -120.2,   0.98898, 3,    6280.85,  119.8,   0.98898
"MG_SCHOOL_DTC", 11, 1,    6326.94,   -0.2,   0.99623, 2,    6326.94, -120.2,   0.99623, 3,    6326.94,  119.8,   0.99623
"CHAFERAN_DTC", 11, 1,    6326.22,   -0.2,   0.99612, 2,    6326.22, -120.2,   0.99612, 3,    6326.22,  119.8,   0.99612
"SHIGUMOMAND_DTC", 11, 1,     6325.8,   -0.2,   0.99605, 2,     6325.8, -120.2,   0.99605, 3,     6325.8,  119.8,   0.99605
"MOGRU_DTC", 11, 1,    6323.74,   -0.2,   0.99573, 2,    6323.74, -120.2,   0.99573, 3,    6323.74,  119.8,   0.99573
"SHAMRAO_BUILDERS_DTC", 11, 1,    6320.39,   -0.2,    0.9952, 2,    6320.39, -120.2,    0.9952, 3,    6320.39,  119.8,    0.9952
"KUNAL_DTC", 11, 1,    6319.47,   -0.2,   0.99506, 2,    6319.47, -120.2,   0.99506, 3,    6319.47,  119.8,   0.99506
"PEARL_DTC", 11, 1,    6319.15,   -0.2,   0.99501, 2,    6319.15, -120.2,   0.99501, 3,    6319.15,  119.8,   0.99501
"MAHALAXMI_BANDORA_DTC", 11, 1,    6318.04,   -0.2,   0.99483, 2,    6318.04, -120.2,   0.99483, 3,    6318.04,  119.8,   0.99483
"AGRA_SHALA_DTC", 11, 1,    6317.82,   -0.2,    0.9948, 2,    6317.82, -120.2,    0.9948, 3,    6317.82,  119.8,    0.9948
"TILVE_RMU", 11, 1,    6316.88,   -0.2,   0.99465, 2,    6316.88, -120.2,   0.99465, 3,    6316.88,  119.8,   0.99465
"HINDU_JAN_JAGRUTI_DTC", 11, 1,    6316.81,   -0.2,   0.99464, 2,    6316.81, -120.2,   0.99464, 3,    6316.81,  119.8,   0.99464
"VAGDOR_DTC", 11, 1,    6316.81,   -0.2,   0.99464, 2,    6316.81, -120.2,   0.99464, 3,    6316.81,  119.8,   0.99464
"NAGESHI_TEMPLE_DTC", 11, 1,    6315.91,   -0.2,    0.9945, 2,    6315.91, -120.2,    0.9945, 3,    6315.91,  119.8,    0.9945
"DHONSHI_DTC", 11, 1,    6315.76,   -0.2,   0.99447, 2,    6315.76, -120.2,   0.99447, 3,    6315.76,  119.8,   0.99447
"BANDORA_PANCHAYAT_RMU", 11, 1,    6315.53,   -0.2,   0.99444, 2,    6315.53, -120.2,   0.99444, 3,    6315.53,  119.8,   0.99444
"KASHIMATHGROUND_DTC", 11, 1,    6315.53,   -0.2,   0.99444, 2,    6315.53, -120.2,   0.99444, 3,    6315.53,  119.8,   0.99444
"RAINGUINIM", 11, 1,    6315.38,   -0.2,   0.99441, 2,    6315.38, -120.2,   0.99441, 3,    6315.38,  119.8,   0.99441
"3_WAY_SNEH_MANDIR", 11, 1,    6281.53,   -0.2,   0.98908, 2,    6281.53, -120.2,   0.98908, 3,    6281.53,  119.8,   0.98908
"RAM_MANDIRBUS1", 0.415, 1,    236.089,  -30.8,   0.98535, 2,    236.089, -150.8,   0.98535, 3,    236.089,   89.2,   0.98535
"DEMPO_DTCBUS1", 0.415, 1,    237.597,  -30.3,   0.99164, 2,    237.597, -150.3,   0.99164, 3,    237.597,   89.7,   0.99164
"RB_ENGGBUS1", 0.415, 1,    237.558,  -30.3,   0.99148, 2,    237.558, -150.3,   0.99148, 3,    237.558,   89.7,   0.99148
"UNDIR_BAKALEBUS1", 0.415, 1,    235.797,  -30.8,   0.98413, 2,    235.797, -150.8,   0.98413, 3,    235.797,   89.2,   0.98413
"MULEBHATBUS1", 0.415, 1,    235.522,  -30.8,   0.98298, 2,    235.522, -150.8,   0.98298, 3,    235.522,   89.2,   0.98298
"MARUTI_TEMPLEBUS1", 0.415, 1,    235.681,  -30.7,   0.98364, 2,    235.681, -150.7,   0.98364, 3,    235.681,   89.3,   0.98364
"CHIKALIBUS1", 0.415, 1,    235.719,  -30.7,    0.9838, 2,    235.719, -150.7,    0.9838, 3,    235.719,   89.3,    0.9838
"ADPAIBUS1", 0.415, 1,     234.66,  -31.0,   0.97938, 2,     234.66, -151.0,   0.97938, 3,     234.66,   89.0,   0.97938
"DURBHATBUS1", 0.415, 1,    234.555,  -31.0,   0.97894, 2,    234.555, -151.0,   0.97894, 3,    234.555,   89.0,   0.97894
"SEWERAGEBUS1", 0.415, 1,    236.835,  -30.3,   0.98846, 2,    236.835, -150.3,   0.98846, 3,    236.835,   89.7,   0.98846
"KASWADABUS1", 0.415, 1,    234.672,  -30.9,   0.97943, 2,    234.672, -150.9,   0.97943, 3,    234.672,   89.1,   0.97943
"LONDIYAR_WADEMBUS1", 0.415, 1,    234.482,  -31.0,   0.97864, 2,    234.482, -151.0,   0.97864, 3,    234.482,   89.0,   0.97864
"NEW_TALAULIMBUS1", 0.415, 1,    236.035,  -30.5,   0.98512, 2,    236.035, -150.5,   0.98512, 3,    236.035,   89.5,   0.98512
"WADIBUS1", 0.415, 1,    235.255,  -30.8,   0.98186, 2,    235.255, -150.8,   0.98186, 3,    235.255,   89.2,   0.98186
"TALAULIMBUS1", 0.415, 1,    235.384,  -30.7,    0.9824, 2,    235.384, -150.7,    0.9824, 3,    235.384,   89.3,    0.9824
"MAHALAKSHMI_NAGARBUS1", 0.415, 1,    234.469,  -31.0,   0.97858, 2,    234.469, -151.0,   0.97858, 3,    234.469,   89.0,   0.97858
"PAUNWADABUS1", 0.415, 1,    234.508,  -31.1,   0.97875, 2,    234.508, -151.1,   0.97875, 3,    234.508,   88.9,   0.97875
"KAVLE_MATHBUS1", 0.415, 1,     236.18,  -30.5,   0.98572, 2,     236.18, -150.5,   0.98572, 3,     236.18,   89.5,   0.98572
"SHANTADURGA_OLDBUS1", 0.415, 1,    236.344,  -30.5,   0.98641, 2,    236.344, -150.5,   0.98641, 3,    236.344,   89.5,   0.98641
"SANATAN_1BUS1", 0.415, 1,    235.328,  -30.8,   0.98217, 2,    235.328, -150.8,   0.98217, 3,    235.328,   89.2,   0.98217
"SANATAN_2BUS1", 0.415, 1,    237.204,  -30.2,      0.99, 2,    237.204, -150.2,      0.99, 3,    237.204,   89.8,      0.99
"RAMNATHI_DEVASTHANBUS1", 0.415, 1,    236.341,  -30.5,    0.9864, 2,    236.341, -150.5,    0.9864, 3,    236.341,   89.5,    0.9864
"RAMNATHIBUS1", 0.415, 1,    237.261,  -30.2,   0.99024, 2,    237.261, -150.2,   0.99024, 3,    237.261,   89.8,   0.99024
"RPRS_SCHOOLBUS1", 0.415, 1,    237.218,  -30.3,   0.99006, 2,    237.218, -150.3,   0.99006, 3,    237.218,   89.7,   0.99006
"TOLULEMBUS1", 0.415, 1,    237.645,  -30.2,   0.99184, 2,    237.645, -150.2,   0.99184, 3,    237.645,   89.8,   0.99184
"KHARWADABUS1", 0.415, 1,    238.007,  -30.2,   0.99335, 2,    238.007, -150.2,   0.99335, 3,    238.007,   89.8,   0.99335
"SHANTADURGA_NEWBUS1", 0.415, 1,    233.863,  -31.3,   0.97606, 2,    233.863, -151.3,   0.97606, 3,    233.863,   88.7,   0.97606
"GALSHIREBUS1", 0.415, 1,     234.54,  -31.0,   0.97888, 2,     234.54, -151.0,   0.97888, 3,     234.54,   89.0,   0.97888
"RAJENDRA_TALAKBUS1", 0.415, 1,     236.83,  -30.3,   0.98844, 2,     236.83, -150.3,   0.98844, 3,     236.83,   89.7,   0.98844
"RITESH_DEVELOPERSBUS1", 0.415, 1,    236.747,  -30.3,   0.98809, 2,    236.747, -150.3,   0.98809, 3,    236.747,   89.7,   0.98809
"VENKATESH_LEELABUS1", 0.415, 1,    236.943,  -30.2,   0.98891, 2,    236.943, -150.2,   0.98891, 3,    236.943,   89.8,   0.98891
"PERIGOLBUS1", 0.415, 1,    232.256,  -31.8,   0.96935, 2,    232.256, -151.8,   0.96935, 3,    232.256,   88.2,   0.96935
"MANMOHAN_SINGHBUS1", 0.415, 1,    235.194,  -30.7,   0.98161, 2,    235.194, -150.7,   0.98161, 3,    235.194,   89.3,   0.98161
"DHUMREBUS1", 0.415, 1,    234.426,  -31.0,    0.9784, 2,    234.426, -151.0,    0.9784, 3,    234.426,   89.0,    0.9784
"SHASHIKALA_PAIBUS1", 0.415, 1,    236.976,  -30.2,   0.98905, 2,    236.976, -150.2,   0.98905, 3,    236.976,   89.8,   0.98905
"KAPILESHWARIBUS1", 0.415, 1,     235.16,  -30.8,   0.98147, 2,     235.16, -150.8,   0.98147, 3,     235.16,   89.2,   0.98147
"MATRUCHAYABUS1", 0.415, 1,    235.401,  -30.7,   0.98247, 2,    235.401, -150.7,   0.98247, 3,    235.401,   89.3,   0.98247
"VAMNESHWARBUS1", 0.415, 1,    235.078,  -30.8,   0.98112, 2,    235.078, -150.8,   0.98112, 3,    235.078,   89.2,   0.98112
"GOLDEN_PROPERTIESBUS1", 0.415, 1,    236.956,  -30.2,   0.98896, 2,    236.956, -150.2,   0.98896, 3,    236.956,   89.8,   0.98896
"RITESHBUS1", 0.415, 1,    236.956,  -30.2,   0.98896, 2,    236.956, -150.2,   0.98896, 3,    236.956,   89.8,   0.98896
"SNEHMANDIR_LV", 0.415, 1,    235.255,  -30.8,   0.98186, 2,    235.255, -150.8,   0.98186, 3,    235.255,   89.2,   0.98186
"RAINGUINIM_LV", 0.415, 1,    236.454,  -30.7,   0.98687, 2,    236.454, -150.7,   0.98687, 3,    236.454,   89.3,   0.98687
"BANDORAP_LV", 0.415, 1,    236.402,  -30.8,   0.98665, 2,    236.402, -150.8,   0.98665, 3,    236.402,   89.2,   0.98665
"KASHIMATHG_LV", 0.415, 1,    238.264,  -30.2,   0.99442, 2,    238.264, -150.2,   0.99442, 3,    238.264,   89.8,   0.99442
"NAGESHIT_LV", 0.415, 1,    236.601,  -30.7,   0.98748, 2,    236.601, -150.7,   0.98748, 3,    236.601,   89.3,   0.98748
"DHONSHI_LV", 0.415, 1,    236.096,  -30.9,   0.98537, 2,    236.096, -150.9,   0.98537, 3,    236.096,   89.1,   0.98537
"AGRASHALA_LV", 0.415, 1,    236.861,  -30.6,   0.98857, 2,    236.861, -150.6,   0.98857, 3,    236.861,   89.4,   0.98857
"HINDUJAN_LV", 0.415, 1,    236.136,  -30.9,   0.98554, 2,    236.136, -150.9,   0.98554, 3,    236.136,   89.1,   0.98554
"VAGDOR_LV", 0.415, 1,    238.313,  -30.2,   0.99463, 2,    238.313, -150.2,   0.99463, 3,    238.313,   89.8,   0.99463
"MAHALAXMI_LV", 0.415, 1,    235.866,  -30.9,   0.98441, 2,    235.866, -150.9,   0.98441, 3,    235.866,   89.1,   0.98441
"PEARL_LV", 0.415, 1,    236.854,  -30.7,   0.98854, 2,    236.854, -150.7,   0.98854, 3,    236.854,   89.3,   0.98854
"KUNAL_LV", 0.415, 1,    236.709,  -30.7,   0.98793, 2,    236.709, -150.7,   0.98793, 3,    236.709,   89.3,   0.98793
"SHAMRAO_LV", 0.415, 1,    238.039,  -30.3,   0.99348, 2,    238.039, -150.3,   0.99348, 3,    238.039,   89.7,   0.99348
"MOGRU_LV", 0.415, 1,    238.574,  -30.2,   0.99572, 2,    238.574, -150.2,   0.99572, 3,    238.574,   89.8,   0.99572
"KONARGAUNEM_LV", 0.415, 1,     237.12,  -30.7,   0.98965, 2,     237.12, -150.7,   0.98965, 3,     237.12,   89.3,   0.98965
"MGSCHOOL_LV", 0.415, 1,    238.318,  -30.3,   0.99465, 2,    238.318, -150.3,   0.99465, 3,    238.318,   89.7,   0.99465
"CHAFERAN_LV", 0.415, 1,    236.717,  -30.8,   0.98797, 2,    236.717, -150.8,   0.98797, 3,    236.717,   89.2,   0.98797
"SHIGUMOMAND_LV", 0.415, 1,    236.478,  -30.8,   0.98697, 2,    236.478, -150.8,   0.98697, 3,    236.478,   89.2,   0.98697
"3_WAY_GOA_DAIRY_1", 11, 1,     6331.3,   -0.2,   0.99692, 2,     6331.3, -120.2,   0.99692, 3,     6331.3,  119.8,   0.99692
"FORENSIC", 11, 1,    6329.82,   -0.2,   0.99669, 2,    6329.82, -120.2,   0.99669, 3,    6329.82,  119.8,   0.99669
"DADA_VAIDYA", 11, 1,    6328.33,   -0.2,   0.99645, 2,    6328.33, -120.2,   0.99645, 3,    6328.33,  119.8,   0.99645
"3_WAY_DADA_VAIDYA", 11, 1,    6328.22,   -0.2,   0.99644, 2,    6328.22, -120.2,   0.99644, 3,    6328.22,  119.8,   0.99644
"AGARWAL_GARDENS", 11, 1,    6326.48,   -0.2,   0.99616, 2,    6326.48, -120.2,   0.99616, 3,    6326.48,  119.8,   0.99616
"FIBERGLASS", 11, 1,    6325.33,   -0.2,   0.99598, 2,    6325.33, -120.2,   0.99598, 3,    6325.33,  119.8,   0.99598
"4_WAY_SAISERVICE", 11, 1,    6324.89,   -0.2,   0.99591, 2,    6324.89, -120.2,   0.99591, 3,    6324.89,  119.8,   0.99591
"AGARWAL_HTC", 11, 1,    6324.79,   -0.2,    0.9959, 2,    6324.79, -120.2,    0.9959, 3,    6324.79,  119.8,    0.9959
"YUMMY_ICECREAM", 11, 1,     6324.8,   -0.2,    0.9959, 2,     6324.8, -120.2,    0.9959, 3,     6324.8,  119.8,    0.9959
"SHIVLAL", 11, 1,    6324.82,   -0.2,    0.9959, 2,    6324.82, -120.2,    0.9959, 3,    6324.82,  119.8,    0.9959
"KELBAI", 11, 1,    6325.13,   -0.2,   0.99595, 2,    6325.13, -120.2,   0.99595, 3,    6325.13,  119.8,   0.99595
"3_WAY_DOCTOR", 11, 1,     6325.4,   -0.2,   0.99599, 2,     6325.4, -120.2,   0.99599, 3,     6325.4,  119.8,   0.99599
"SURYA_MASALA", 11, 1,    6324.92,   -0.2,   0.99592, 2,    6324.92, -120.2,   0.99592, 3,    6324.92,  119.8,   0.99592
"PISGAL", 11, 1,    6324.76,   -0.2,   0.99589, 2,    6324.76, -120.2,   0.99589, 3,    6324.76,  119.8,   0.99589
"3_WAY_GOADAIRY2", 11, 1,    6331.25,   -0.2,   0.99691, 2,    6331.25, -120.2,   0.99691, 3,    6331.25,  119.8,   0.99691
"DAIRY_HTC", 11, 1,    6331.17,   -0.2,    0.9969, 2,    6331.17, -120.2,    0.9969, 3,    6331.17,  119.8,    0.9969
"DAIRY_OLD", 11, 1,    6330.74,   -0.2,   0.99683, 2,    6330.74, -120.2,   0.99683, 3,    6330.74,  119.8,   0.99683
"3_WAY_MICROWAVE", 11, 1,    6329.33,   -0.2,   0.99661, 2,    6329.33, -120.2,   0.99661, 3,    6329.33,  119.8,   0.99661
"MICROWAVE", 11, 1,     6329.3,   -0.2,   0.99661, 2,     6329.3, -120.2,   0.99661, 3,     6329.3,  119.8,   0.99661
"3_WAY_VEREKAR", 11, 1,    6328.56,   -0.2,   0.99649, 2,    6328.56, -120.2,   0.99649, 3,    6328.56,  119.8,   0.99649
"3_WAY_SAHAKARI", 11, 1,    6328.56,   -0.2,   0.99649, 2,    6328.56, -120.2,   0.99649, 3,    6328.56,  119.8,   0.99649
"ECAP_HTC", 11, 1,    6324.33,   -0.2,   0.99582, 2,    6324.33, -120.2,   0.99582, 3,    6324.33,  119.8,   0.99582
"PRAKASH", 11, 1,    6324.27,   -0.2,   0.99581, 2,    6324.27, -120.2,   0.99581, 3,    6324.27,  119.8,   0.99581
"KAYJI_SKYLINE", 11, 1,    6324.02,   -0.2,   0.99577, 2,    6324.02, -120.2,   0.99577, 3,    6324.02,  119.8,   0.99577
"RUDRA_DEVELOPER", 11, 1,    6323.94,   -0.2,   0.99576, 2,    6323.94, -120.2,   0.99576, 3,    6323.94,  119.8,   0.99576
"3_WAY_KHADPABANDH", 11, 1,    6323.94,   -0.2,   0.99576, 2,    6323.94, -120.2,   0.99576, 3,    6323.94,  119.8,   0.99576
"ASSOCIATE", 11, 1,     6324.5,   -0.2,   0.99585, 2,     6324.5, -120.2,   0.99585, 3,     6324.5,  119.8,   0.99585
"KV_SCHOOL", 11, 1,    6324.44,   -0.2,   0.99584, 2,    6324.44, -120.2,   0.99584, 3,    6324.44,  119.8,   0.99584
"KORDE", 11, 1,     6324.3,   -0.2,   0.99582, 2,     6324.3, -120.2,   0.99582, 3,     6324.3,  119.8,   0.99582
"KAPAT_FACTORY", 11, 1,    6324.25,   -0.2,   0.99581, 2,    6324.25, -120.2,   0.99581, 3,    6324.25,  119.8,   0.99581
"2_WAY_CONEMI", 11, 1,    6324.25,   -0.2,   0.99581, 2,    6324.25, -120.2,   0.99581, 3,    6324.25,  119.8,   0.99581
"3_WAY_COPPERWADA_2", 11, 1,    6327.38,   -0.2,    0.9963, 2,    6327.38, -120.2,    0.9963, 3,    6327.38,  119.8,    0.9963
"3_WAY_COPPERWADA_1", 11, 1,    6327.08,   -0.2,   0.99626, 2,    6327.08, -120.2,   0.99626, 3,    6327.08,  119.8,   0.99626
"DOCTOR_BAKALE", 11, 1,    6326.16,   -0.2,   0.99611, 2,    6326.16, -120.2,   0.99611, 3,    6326.16,  119.8,   0.99611
"4_WAY_VEREKAR", 11, 1,    6327.95,   -0.2,   0.99639, 2,    6327.95, -120.2,   0.99639, 3,    6327.95,  119.8,   0.99639
"FORENSICBUS1", 0.415, 1,     237.94,   -0.3,   0.99307, 2,     237.94, -120.3,   0.99307, 3,     237.94,  119.7,   0.99307
"DADA_VAIDYABUS2", 0.415, 1,    234.277,   -0.9,   0.97778, 2,    234.277, -120.9,   0.97778, 3,    234.277,  119.1,   0.97778
"AGARWAL_GARDENSBUS3", 0.415, 1,    238.681,   -0.2,   0.99616, 2,    238.681, -120.2,   0.99616, 3,    238.681,  119.8,   0.99616
"FIBERGLASSBUS4", 0.415, 1,    237.878,   -0.3,   0.99281, 2,    237.878, -120.3,   0.99281, 3,    237.878,  119.7,   0.99281
"AGARWAL_HTCBUS5", 0.415, 1,    237.749,   -0.3,   0.99227, 2,    237.749, -120.3,   0.99227, 3,    237.749,  119.7,   0.99227
"YUMMY_ICECREAMBUS6", 0.415, 1,    237.749,   -0.3,   0.99227, 2,    237.749, -120.3,   0.99227, 3,    237.749,  119.7,   0.99227
"SHIVLALBUS7", 0.415, 1,    237.149,   -0.4,   0.98977, 2,    237.149, -120.4,   0.98977, 3,    237.149,  119.6,   0.98977
"KELBAIBUS8", 0.415, 1,    235.669,   -0.6,   0.98359, 2,    235.669, -120.6,   0.98359, 3,    235.669,  119.4,   0.98359
"SURYA_MASALABUS9", 0.415, 1,    230.516,   -1.4,   0.96209, 2,    230.516, -121.4,   0.96209, 3,    230.516,  118.6,   0.96209
"DOCTOR_BAKALEBUS10", 0.415, 1,    233.888,   -0.9,   0.97616, 2,    233.888, -120.9,   0.97616, 3,    233.888,  119.1,   0.97616
"ECAP_HTCBUS11", 0.415, 1,    237.732,   -0.3,    0.9922, 2,    237.732, -120.3,    0.9922, 3,    237.732,  119.7,    0.9922
"PRAKASHBUS12", 0.415, 1,    234.629,   -0.8,   0.97925, 2,    234.629, -120.8,   0.97925, 3,    234.629,  119.2,   0.97925
"KAYJI_SKYLINEBUS13", 0.415, 1,    233.088,   -1.0,   0.97282, 2,    233.088, -121.0,   0.97282, 3,    233.088,  119.0,   0.97282
"RUDRA_DEVELOPERBUS14", 0.415, 1,    234.616,   -0.8,    0.9792, 2,    234.616, -120.8,    0.9792, 3,    234.616,  119.2,    0.9792
"ASSOCIATEBUS15", 0.415, 1,    237.847,   -0.3,   0.99268, 2,    237.847, -120.3,   0.99268, 3,    237.847,  119.7,   0.99268
"KV_SCHOOLBUS16", 0.415, 1,    237.736,   -0.3,   0.99222, 2,    237.736, -120.3,   0.99222, 3,    237.736,  119.7,   0.99222
"KORDEBUS17", 0.415, 1,    236.137,   -0.6,   0.98555, 2,    236.137, -120.6,   0.98555, 3,    236.137,  119.4,   0.98555
"KAPAT_FACTORYBUS18", 0.415, 1,    237.728,   -0.3,   0.99219, 2,    237.728, -120.3,   0.99219, 3,    237.728,  119.7,   0.99219
"VEREKARBUS19", 0.415, 1,    235.275,   -0.7,   0.98195, 2,    235.275, -120.7,   0.98195, 3,    235.275,  119.3,   0.98195
"MICROWAVEBUS20", 0.415, 1,    238.029,   -0.3,   0.99344, 2,    238.029, -120.3,   0.99344, 3,    238.029,  119.7,   0.99344
"DAIRY_OLDBUS21", 0.415, 1,    234.877,   -0.8,   0.98029, 2,    234.877, -120.8,   0.98029, 3,    234.877,  119.2,   0.98029
"DAIRY_HTCBUS22", 0.415, 1,    237.991,   -0.3,   0.99328, 2,    237.991, -120.3,   0.99328, 3,    237.991,  119.7,   0.99328
"PISGALBUS23", 0.415, 1,    235.152,   -0.7,   0.98144, 2,    235.152, -120.7,   0.98144, 3,    235.152,  119.3,   0.98144
"GOLDEN_NEST", 11, 1,     6322.4,   -0.2,   0.99552, 2,     6322.4, -120.2,   0.99552, 3,     6322.4,  119.8,   0.99552
"RATNADEEP_APT", 11, 1,    6317.64,   -0.2,   0.99477, 2,    6317.64, -120.2,   0.99477, 3,    6317.64,  119.8,   0.99477
"SUREKHA_PARKAR", 11, 1,    6313.57,   -0.2,   0.99413, 2,    6313.57, -120.2,   0.99413, 3,    6313.57,  119.8,   0.99413
"NAGZAR", 11, 1,    6308.86,   -0.2,   0.99339, 2,    6308.86, -120.2,   0.99339, 3,    6308.86,  119.8,   0.99339
"3_WAY_SURAJ_BAR", 11, 1,    6308.57,   -0.2,   0.99334, 2,    6308.57, -120.2,   0.99334, 3,    6308.57,  119.8,   0.99334
"SARTHAK_NEST", 11, 1,    6307.11,   -0.2,   0.99311, 2,    6307.11, -120.2,   0.99311, 3,    6307.11,  119.8,   0.99311
"PROGRESS", 11, 1,    6305.01,   -0.2,   0.99278, 2,    6305.01, -120.2,   0.99278, 3,    6305.01,  119.8,   0.99278
"3_WAY_PROGRESS", 11, 1,    6304.73,   -0.2,   0.99274, 2,    6304.73, -120.2,   0.99274, 3,    6304.73,  119.8,   0.99274
"COMMERTIAL_TAX", 11, 1,    6303.48,   -0.2,   0.99254, 2,    6303.48, -120.2,   0.99254, 3,    6303.48,  119.8,   0.99254
"SADASHIV_TWIN_TOWER", 11, 1,    6302.51,   -0.2,   0.99239, 2,    6302.51, -120.2,   0.99239, 3,    6302.51,  119.8,   0.99239
"VEREKAR_2", 11, 1,    6301.28,   -0.2,   0.99219, 2,    6301.28, -120.2,   0.99219, 3,    6301.28,  119.8,   0.99219
"3_WAY_VEREKAR_2", 11, 1,    6301.03,   -0.2,   0.99215, 2,    6301.03, -120.2,   0.99215, 3,    6301.03,  119.8,   0.99215
"BANDODKAR", 11, 1,    6298.72,   -0.2,   0.99179, 2,    6298.72, -120.2,   0.99179, 3,    6298.72,  119.8,   0.99179
"PANDITWADA", 11, 1,    6300.85,   -0.2,   0.99213, 2,    6300.85, -120.2,   0.99213, 3,    6300.85,  119.8,   0.99213
"3_WAY_BAGAYTDAR", 11, 1,    6298.49,   -0.2,   0.99175, 2,    6298.49, -120.2,   0.99175, 3,    6298.49,  119.8,   0.99175
"KAZIWADA", 11, 1,    6297.71,   -0.2,   0.99163, 2,    6297.71, -120.2,   0.99163, 3,    6297.71,  119.8,   0.99163
"TWIN_TOWER", 11, 1,    6296.03,   -0.2,   0.99137, 2,    6296.03, -120.2,   0.99137, 3,    6296.03,  119.8,   0.99137
"HOTEL_MENINO", 11, 1,    6294.32,   -0.2,    0.9911, 2,    6294.32, -120.2,    0.9911, 3,    6294.32,  119.8,    0.9911
"3W_CANARA", 11, 1,    6292.87,   -0.2,   0.99087, 2,    6292.87, -120.2,   0.99087, 3,    6292.87,  119.8,   0.99087
"3_WAY_BHOSLE_1", 11, 1,    6291.91,   -0.2,   0.99072, 2,    6291.91, -120.2,   0.99072, 3,    6291.91,  119.8,   0.99072
"CANARA_BANK", 11, 1,    6292.86,   -0.2,   0.99087, 2,    6292.86, -120.2,   0.99087, 3,    6292.86,  119.8,   0.99087
"KCA", 11, 1,    6292.79,   -0.2,   0.99086, 2,    6292.79, -120.2,   0.99086, 3,    6292.79,  119.8,   0.99086
"2W_GANGANATH", 11, 1,    6292.79,   -0.2,   0.99086, 2,    6292.79, -120.2,   0.99086, 3,    6292.79,  119.8,   0.99086
"3_WAY_BHOSLE_2", 11, 1,     6291.7,   -0.2,   0.99069, 2,     6291.7, -120.2,   0.99069, 3,     6291.7,  119.8,   0.99069
"SUPER_MARKET", 11, 1,     6291.7,   -0.2,   0.99069, 2,     6291.7, -120.2,   0.99069, 3,     6291.7,  119.8,   0.99069
"3_WAY_BAZAR", 11, 1,     6291.7,   -0.2,   0.99069, 2,     6291.7, -120.2,   0.99069, 3,     6291.7,  119.8,   0.99069
"BHOSLE", 11, 1,    6291.58,   -0.2,   0.99067, 2,    6291.58, -120.2,   0.99067, 3,    6291.58,  119.8,   0.99067
"KANIR_CONSTRUCTION_HTC", 11, 1,    6291.23,   -0.2,   0.99061, 2,    6291.23, -120.2,   0.99061, 3,    6291.23,  119.8,   0.99061
"KANIR_CONSTRUCTION", 11, 1,    6290.83,   -0.2,   0.99055, 2,    6290.83, -120.2,   0.99055, 3,    6290.83,  119.8,   0.99055
"BSNL_INTERNAL", 11, 1,    6290.45,   -0.2,   0.99049, 2,    6290.45, -120.2,   0.99049, 3,    6290.45,  119.8,   0.99049
"KAMAT_AVR_REALTORS", 11, 1,    6290.27,   -0.2,   0.99046, 2,    6290.27, -120.2,   0.99046, 3,    6290.27,  119.8,   0.99046
"COELO", 11, 1,    6290.13,   -0.2,   0.99044, 2,    6290.13, -120.2,   0.99044, 3,    6290.13,  119.8,   0.99044
"DK_ARCADE", 11, 1,    6290.01,   -0.2,   0.99042, 2,    6290.01, -120.2,   0.99042, 3,    6290.01,  119.8,   0.99042
"GOA_STATE_BANK", 11, 1,    6289.22,   -0.2,    0.9903, 2,    6289.22, -120.2,    0.9903, 3,    6289.22,  119.8,    0.9903
"3_WAY_MUNCIPALITY", 11, 1,    6288.47,   -0.2,   0.99018, 2,    6288.47, -120.2,   0.99018, 3,    6288.47,  119.8,   0.99018
"3_WAY_TISK", 11, 1,    6287.72,   -0.2,   0.99006, 2,    6287.72, -120.2,   0.99006, 3,    6287.72,  119.8,   0.99006
"3_WAY_MAMLATDAR", 11, 1,    6286.64,   -0.2,   0.98989, 2,    6286.64, -120.2,   0.98989, 3,    6286.64,  119.8,   0.98989
"MAMLADTDAR", 11, 1,    6286.09,   -0.2,    0.9898, 2,    6286.09, -120.2,    0.9898, 3,    6286.09,  119.8,    0.9898
"TARANGAN_I", 11, 1,    6285.02,   -0.2,   0.98963, 2,    6285.02, -120.2,   0.98963, 3,    6285.02,  119.8,   0.98963
"RAJMUDRA_I", 11, 1,    6284.13,   -0.2,   0.98949, 2,    6284.13, -120.2,   0.98949, 3,    6284.13,  119.8,   0.98949
"PWD", 11, 1,    6283.68,   -0.2,   0.98942, 2,    6283.68, -120.2,   0.98942, 3,    6283.68,  119.8,   0.98942
"RAJMUDRA_II", 11, 1,    6282.99,   -0.2,   0.98931, 2,    6282.99, -120.2,   0.98931, 3,    6282.99,  119.8,   0.98931
"RAJ_DURGA", 11, 1,    6282.93,   -0.2,   0.98931, 2,    6282.93, -120.2,   0.98931, 3,    6282.93,  119.8,   0.98931
"SUMIT_PLUMERIA", 11, 1,    6282.72,   -0.2,   0.98927, 2,    6282.72, -120.2,   0.98927, 3,    6282.72,  119.8,   0.98927
"3_WAY_DAAG", 11, 1,    6282.48,   -0.2,   0.98923, 2,    6282.48, -120.2,   0.98923, 3,    6282.48,  119.8,   0.98923
"DAAG", 11, 1,    6282.24,   -0.2,    0.9892, 2,    6282.24, -120.2,    0.9892, 3,    6282.24,  119.8,    0.9892
"4_WAY_MENINO", 11, 1,    6290.51,   -0.2,    0.9905, 2,    6290.51, -120.2,    0.9905, 3,    6290.51,  119.8,    0.9905
"SUMIT_SHIVAM", 11, 1,    6290.31,   -0.2,   0.99047, 2,    6290.31, -120.2,   0.99047, 3,    6290.31,  119.8,   0.99047
"KALPANA", 11, 1,    6290.13,   -0.2,   0.99044, 2,    6290.13, -120.2,   0.99044, 3,    6290.13,  119.8,   0.99044
"2_WAY_SHANTINAGAR", 11, 1,    6290.13,   -0.2,   0.99044, 2,    6290.13, -120.2,   0.99044, 3,    6290.13,  119.8,   0.99044
"POLICE_STATION", 11, 1,     6289.5,   -0.2,   0.99034, 2,     6289.5, -120.2,   0.99034, 3,     6289.5,  119.8,   0.99034
"3_WAY_APOLLO", 11, 1,    6288.93,   -0.2,   0.99025, 2,    6288.93, -120.2,   0.99025, 3,    6288.93,  119.8,   0.99025
"RAJDEEP_GALARIA_I", 11, 1,    6288.84,   -0.2,   0.99023, 2,    6288.84, -120.2,   0.99023, 3,    6288.84,  119.8,   0.99023
"RAJDEEP_GALARIA_II", 11, 1,    6288.83,   -0.2,   0.99023, 2,    6288.83, -120.2,   0.99023, 3,    6288.83,  119.8,   0.99023
"2_WAY_BAZAR", 11, 1,    6288.83,   -0.2,   0.99023, 2,    6288.83, -120.2,   0.99023, 3,    6288.83,  119.8,   0.99023
"AIESHA", 11, 1,    6288.42,   -0.2,   0.99017, 2,    6288.42, -120.2,   0.99017, 3,    6288.42,  119.8,   0.99017
"GOLDEN_NESTBUS", 0.415, 1,    235.565,   -0.6,   0.98316, 2,    235.565, -120.6,   0.98316, 3,    235.565,  119.4,   0.98316
"SUREKHA_PARKARBUS", 0.415, 1,    234.218,   -0.8,   0.97754, 2,    234.218, -120.8,   0.97754, 3,    234.218,  119.2,   0.97754
"NAGZARBUS", 0.415, 1,    234.038,   -0.8,   0.97678, 2,    234.038, -120.8,   0.97678, 3,    234.038,  119.2,   0.97678
"SARTHAK_NESTBUS", 0.415, 1,     234.98,   -0.7,   0.98072, 2,     234.98, -120.7,   0.98072, 3,     234.98,  119.3,   0.98072
"PROGRESSBUS", 0.415, 1,     233.89,   -0.8,   0.97617, 2,     233.89, -120.8,   0.97617, 3,     233.89,  119.2,   0.97617
"COMMERTIAL_TAXBUS", 0.415, 1,    236.942,   -0.3,   0.98891, 2,    236.942, -120.3,   0.98891, 3,    236.942,  119.7,   0.98891
"PANDITWADABUS", 0.415, 1,    234.741,   -0.7,   0.97972, 2,    234.741, -120.7,   0.97972, 3,    234.741,  119.3,   0.97972
"VEREKAR_2_BUS", 0.415, 1,    234.253,   -0.7,   0.97768, 2,    234.253, -120.7,   0.97768, 3,    234.253,  119.3,   0.97768
"BANDODKARBUS", 0.415, 1,    234.156,   -0.7,   0.97728, 2,    234.156, -120.7,   0.97728, 3,    234.156,  119.3,   0.97728
"KAZIWADABUS", 0.415, 1,    233.609,   -0.8,   0.97499, 2,    233.609, -120.8,   0.97499, 3,    233.609,  119.2,   0.97499
"SADASHIV_TWIN_TOWERBUS", 0.415, 1,    234.805,   -0.7,   0.97999, 2,    234.805, -120.7,   0.97999, 3,    234.805,  119.3,   0.97999
"CANARA_BANKBUS", 0.415, 1,     236.54,   -0.4,   0.98723, 2,     236.54, -120.4,   0.98723, 3,     236.54,  119.6,   0.98723
"KCA_BUS", 0.415, 1,    234.433,   -0.7,   0.97843, 2,    234.433, -120.7,   0.97843, 3,    234.433,  119.3,   0.97843
"BHOSLEBUS", 0.415, 1,    233.374,   -0.8,   0.97401, 2,    233.374, -120.8,   0.97401, 3,    233.374,  119.2,   0.97401
"SUPER_MARKETBUS", 0.415, 1,    236.715,   -0.3,   0.98796, 2,    236.715, -120.3,   0.98796, 3,    236.715,  119.7,   0.98796
"DK_ARCADEBUS", 0.415, 1,    233.314,   -0.8,   0.97376, 2,    233.314, -120.8,   0.97376, 3,    233.314,  119.2,   0.97376
"COELOBUS", 0.415, 1,    233.318,   -0.8,   0.97378, 2,    233.318, -120.8,   0.97378, 3,    233.318,  119.2,   0.97378
"KAMAT_AVR_REALTORSBUS", 0.415, 1,     236.77,   -0.3,   0.98819, 2,     236.77, -120.3,   0.98819, 3,     236.77,  119.7,   0.98819
"BSNL_INTERNALBUS", 0.415, 1,    236.777,   -0.3,   0.98822, 2,    236.777, -120.3,   0.98822, 3,    236.777,  119.7,   0.98822
"KANIR_CONSTRUCTIONBUS", 0.415, 1,    236.791,   -0.3,   0.98828, 2,    236.791, -120.3,   0.98828, 3,    236.791,  119.7,   0.98828
"SUMIT_SHIVAMBUS", 0.415, 1,    233.833,   -0.8,   0.97593, 2,    233.833, -120.8,   0.97593, 3,    233.833,  119.2,   0.97593
"KALPANABUS", 0.415, 1,    233.319,   -0.8,   0.97378, 2,    233.319, -120.8,   0.97378, 3,    233.319,  119.2,   0.97378
"POLICE_STATIONBUS", 0.415, 1,    236.413,   -0.4,    0.9867, 2,    236.413, -120.4,    0.9867, 3,    236.413,  119.6,    0.9867
"GOA_STATE_BANKBUS", 0.415, 1,    236.402,   -0.4,   0.98665, 2,    236.402, -120.4,   0.98665, 3,    236.402,  119.6,   0.98665
"RAJDEEP_GALARIA_I_BUS", 0.415, 1,    236.497,   -0.3,   0.98705, 2,    236.497, -120.3,   0.98705, 3,    236.497,  119.7,   0.98705
"RAJDEEP_GALARIA_II_BUS", 0.415, 1,    236.497,   -0.3,   0.98705, 2,    236.497, -120.3,   0.98705, 3,    236.497,  119.7,   0.98705
"AIESHABUS", 0.415, 1,    233.253,   -0.8,   0.97351, 2,    233.253, -120.8,   0.97351, 3,    233.253,  119.2,   0.97351
"MAMLADTDARBUS", 0.415, 1,    236.284,   -0.4,   0.98616, 2,    236.284, -120.4,   0.98616, 3,    236.284,  119.6,   0.98616
"TARANGAN_I_BUS", 0.415, 1,    234.137,   -0.7,    0.9772, 2,    234.137, -120.7,    0.9772, 3,    234.137,  119.3,    0.9772
"PWDBUS", 0.415, 1,    236.411,   -0.3,   0.98669, 2,    236.411, -120.3,   0.98669, 3,    236.411,  119.7,   0.98669
"RAJMUDRA_I_BUS", 0.415, 1,    233.088,   -0.8,   0.97282, 2,    233.088, -120.8,   0.97282, 3,    233.088,  119.2,   0.97282
"RAJMUDRA_II_BUS", 0.415, 1,    234.059,   -0.7,   0.97687, 2,    234.059, -120.7,   0.97687, 3,    234.059,  119.3,   0.97687
"RAJ_DURGABUS", 0.415, 1,    234.057,   -0.7,   0.97686, 2,    234.057, -120.7,   0.97686, 3,    234.057,  119.3,   0.97686
"SUMIT_PLUMERIABUS", 0.415, 1,    234.552,   -0.6,   0.97893, 2,    234.552, -120.6,   0.97893, 3,    234.552,  119.4,   0.97893
"DAAGBUS", 0.415, 1,    233.016,   -0.8,   0.97252, 2,    233.016, -120.8,   0.97252, 3,    233.016,  119.2,   0.97252
"KANIR_CONSTRUCTIONHTCBUS", 0.415, 1,    237.351,   -0.2,   0.99061, 2,    237.351, -120.2,   0.99061, 3,    237.351,  119.8,   0.99061
"RATNADEEP_APTBUS", 0.415, 1,    234.374,   -0.8,   0.97819, 2,    234.374, -120.8,   0.97819, 3,    234.374,  119.2,   0.97819
"TWIN_TOWERBUS", 0.415, 1,    234.557,   -0.7,   0.97895, 2,    234.557, -120.7,   0.97895, 3,    234.557,  119.3,   0.97895
"3W_COLONY", 11, 1,    6326.59,   -0.2,   0.99618, 2,    6326.59, -120.2,   0.99618, 3,    6326.59,  119.8,   0.99618
"2W_CURTI", 11, 1,    6326.59,   -0.2,   0.99618, 2,    6326.59, -120.2,   0.99618, 3,    6326.59,  119.8,   0.99618
"COLONY", 11, 1,    6325.52,   -0.2,   0.99601, 2,    6325.52, -120.2,   0.99601, 3,    6325.52,  119.8,   0.99601
"NAGA_MASJID_NEW", 11, 1,    6318.78,   -0.2,   0.99495, 2,    6318.78, -120.2,   0.99495, 3,    6318.78,  119.8,   0.99495
"USMANIA", 11, 1,    6315.58,   -0.2,   0.99445, 2,    6315.58, -120.2,   0.99445, 3,    6315.58,  119.8,   0.99445
"HUSSAIN", 11, 1,    6312.93,   -0.2,   0.99403, 2,    6312.93, -120.2,   0.99403, 3,    6312.93,  119.8,   0.99403
"4W_SPORTS_C", 11, 1,    6309.22,   -0.2,   0.99344, 2,    6309.22, -120.2,   0.99344, 3,    6309.22,  119.8,   0.99344
"SPORTS_COMPLEX_HTC", 11, 1,    6309.19,   -0.2,   0.99344, 2,    6309.19, -120.2,   0.99344, 3,    6309.19,  119.8,   0.99344
"SPORTS_COMPLEX", 11, 1,    6309.18,   -0.2,   0.99344, 2,    6309.18, -120.2,   0.99344, 3,    6309.18,  119.8,   0.99344
"3W_SPORTS_C", 11, 1,    6309.05,   -0.2,   0.99342, 2,    6309.05, -120.2,   0.99342, 3,    6309.05,  119.8,   0.99342
"4W_MILITARY_GATE", 11, 1,    6308.88,   -0.2,   0.99339, 2,    6308.88, -120.2,   0.99339, 3,    6308.88,  119.8,   0.99339
"4_WAY_SHEETAL", 11, 1,    6307.15,   -0.2,   0.99312, 2,    6307.15, -120.2,   0.99312, 3,    6307.15,  119.8,   0.99312
"VARKHANDE", 11, 1,    6307.08,   -0.2,   0.99311, 2,    6307.08, -120.2,   0.99311, 3,    6307.08,  119.8,   0.99311
"4_WAY_GANGANATH", 11, 1,     6305.6,   -0.2,   0.99287, 2,     6305.6, -120.2,   0.99287, 3,     6305.6,  119.8,   0.99287
"2_WAY_VARKHANDEM", 11, 1,     6305.6,   -0.2,   0.99287, 2,     6305.6, -120.2,   0.99287, 3,     6305.6,  119.8,   0.99287
"GANGANATH", 11, 1,    6305.54,   -0.2,   0.99286, 2,    6305.54, -120.2,   0.99286, 3,    6305.54,  119.8,   0.99286
"HERITAGE_I", 11, 1,    6305.16,   -0.2,    0.9928, 2,    6305.16, -120.2,    0.9928, 3,    6305.16,  119.8,    0.9928
"HERITAGE_II", 11, 1,    6304.97,   -0.2,   0.99278, 2,    6304.97, -120.2,   0.99278, 3,    6304.97,  119.8,   0.99278
"ALMEDA", 11, 1,    6304.55,   -0.2,   0.99271, 2,    6304.55, -120.2,   0.99271, 3,    6304.55,  119.8,   0.99271
"3_WAY_ALMEDA", 11, 1,    6304.29,   -0.2,   0.99267, 2,    6304.29, -120.2,   0.99267, 3,    6304.29,  119.8,   0.99267
"PATIL", 11, 1,    6300.09,   -0.2,   0.99201, 2,    6300.09, -120.2,   0.99201, 3,    6300.09,  119.8,   0.99201
"3_WAY_PUROHIT", 11, 1,    6296.14,   -0.2,   0.99139, 2,    6296.14, -120.2,   0.99139, 3,    6296.14,  119.8,   0.99139
"PUROHIT", 11, 1,    6296.09,   -0.2,   0.99138, 2,    6296.09, -120.2,   0.99138, 3,    6296.09,  119.8,   0.99138
"BHARDWAJ", 11, 1,    6294.81,   -0.2,   0.99118, 2,    6294.81, -120.2,   0.99118, 3,    6294.81,  119.8,   0.99118
"MAHALAXMI_DEV", 11, 1,    6293.89,   -0.2,   0.99103, 2,    6293.89, -120.2,   0.99103, 3,    6293.89,  119.8,   0.99103
"RAVINAGAR", 11, 1,    6291.98,   -0.2,   0.99073, 2,    6291.98, -120.2,   0.99073, 3,    6291.98,  119.8,   0.99073
"3_WAY_RAVINAGAR", 11, 1,    6291.91,   -0.2,   0.99072, 2,    6291.91, -120.2,   0.99072, 3,    6291.91,  119.8,   0.99072
"2W_RAVINAGAR", 11, 1,    6291.91,   -0.2,   0.99072, 2,    6291.91, -120.2,   0.99072, 3,    6291.91,  119.8,   0.99072
"RANI_CONSTRUCTION", 11, 1,    6295.03,   -0.2,   0.99121, 2,    6295.03, -120.2,   0.99121, 3,    6295.03,  119.8,   0.99121
"KEDAR", 11, 1,     6294.1,   -0.2,   0.99106, 2,     6294.1, -120.2,   0.99106, 3,     6294.1,  119.8,   0.99106
"DESSAI_SANTOBA", 11, 1,    6293.99,   -0.2,   0.99105, 2,    6293.99, -120.2,   0.99105, 3,    6293.99,  119.8,   0.99105
"MAHARUDRA", 11, 1,    6293.91,   -0.2,   0.99103, 2,    6293.91, -120.2,   0.99103, 3,    6293.91,  119.8,   0.99103
"2W_PERIGOL", 11, 1,    6293.91,   -0.2,   0.99103, 2,    6293.91, -120.2,   0.99103, 3,    6293.91,  119.8,   0.99103
"FRIENDS_COLONY", 11, 1,    6290.26,   -0.2,   0.99046, 2,    6290.26, -120.2,   0.99046, 3,    6290.26,  119.8,   0.99046
"KHADPABANDH_GARDEN_II", 11, 1,    6289.82,   -0.2,   0.99039, 2,    6289.82, -120.2,   0.99039, 3,    6289.82,  119.8,   0.99039
"3W_FOUR_POLE", 11, 1,    6289.38,   -0.2,   0.99032, 2,    6289.38, -120.2,   0.99032, 3,    6289.38,  119.8,   0.99032
"KHADPABANDH_GARDEN_I", 11, 1,    6288.83,   -0.2,   0.99023, 2,    6288.83, -120.2,   0.99023, 3,    6288.83,  119.8,   0.99023
"4W_DURBHAT", 11, 1,    6289.38,   -0.2,   0.99032, 2,    6289.38, -120.2,   0.99032, 3,    6289.38,  119.8,   0.99032
"SEVERAGE_HTC", 11, 1,    6288.53,   -0.2,   0.99019, 2,    6288.53, -120.2,   0.99019, 3,    6288.53,  119.8,   0.99019
"3W_DAAG", 11, 1,    6287.92,   -0.2,   0.99009, 2,    6287.92, -120.2,   0.99009, 3,    6287.92,  119.8,   0.99009
"3W_PONDA_I", 11, 1,    6287.92,   -0.2,   0.99009, 2,    6287.92, -120.2,   0.99009, 3,    6287.92,  119.8,   0.99009
"3W_BHAGWATI", 11, 1,    6287.73,   -0.2,   0.99006, 2,    6287.73, -120.2,   0.99006, 3,    6287.73,  119.8,   0.99006
"BHAGWATI_II", 11, 1,    6287.25,   -0.2,   0.98999, 2,    6287.25, -120.2,   0.98999, 3,    6287.25,  119.8,   0.98999
"BHAGWATI_I", 11, 1,    6287.01,   -0.2,   0.98995, 2,    6287.01, -120.2,   0.98995, 3,    6287.01,  119.8,   0.98995
"2W_SATYANARAYAN_TEMPLE", 11, 1,    6287.01,   -0.2,   0.98995, 2,    6287.01, -120.2,   0.98995, 3,    6287.01,  119.8,   0.98995
"ANGARKI", 11, 1,    6305.46,   -0.2,   0.99285, 2,    6305.46, -120.2,   0.99285, 3,    6305.46,  119.8,   0.99285
"3_WAY_MARUTI_TEMPLE", 11, 1,    6306.88,   -0.2,   0.99308, 2,    6306.88, -120.2,   0.99308, 3,    6306.88,  119.8,   0.99308
"4_WAY_MILITARY_GATE", 11, 1,    6306.88,   -0.2,   0.99308, 2,    6306.88, -120.2,   0.99308, 3,    6306.88,  119.8,   0.99308
"SUNGRACE_HTC", 11, 1,    6306.88,   -0.2,   0.99308, 2,    6306.88, -120.2,   0.99308, 3,    6306.88,  119.8,   0.99308
"VRUNDHAVAN_GARDEN", 11, 1,    6306.92,   -0.2,   0.99308, 2,    6306.92, -120.2,   0.99308, 3,    6306.92,  119.8,   0.99308
"SEWERAGE_HTC", 11, 1,    6287.92,   -0.2,   0.99009, 2,    6287.92, -120.2,   0.99009, 3,    6287.92,  119.8,   0.99009
"COLONYBUS", 0.415, 1,    235.684,   -0.6,   0.98365, 2,    235.684, -120.6,   0.98365, 3,    235.684,  119.4,   0.98365
"USMANIABUS", 0.415, 1,      237.4,   -0.3,   0.99082, 2,      237.4, -120.3,   0.99082, 3,      237.4,  119.7,   0.99082
"VARKHANDEBUS", 0.415, 1,    234.475,   -0.7,   0.97861, 2,    234.475, -120.7,   0.97861, 3,    234.475,  119.3,   0.97861
"VRUNDHAVAN_GARDENBUS", 0.415, 1,    234.973,   -0.7,   0.98069, 2,    234.973, -120.7,   0.98069, 3,    234.973,  119.3,   0.98069
"NAGA_MASJID_NEWBUS", 0.415, 1,    236.424,   -0.5,   0.98674, 2,    236.424, -120.5,   0.98674, 3,    236.424,  119.5,   0.98674
"ANGARKIBUS", 0.415, 1,    233.907,   -0.8,   0.97624, 2,    233.907, -120.8,   0.97624, 3,    233.907,  119.2,   0.97624
"GANGANATHBUS", 0.415, 1,     233.91,   -0.8,   0.97625, 2,     233.91, -120.8,   0.97625, 3,     233.91,  119.2,   0.97625
"HERITAGE_IBUS", 0.415, 1,    234.906,   -0.7,   0.98041, 2,    234.906, -120.7,   0.98041, 3,    234.906,  119.3,   0.98041
"HERITAGE_IIBUS", 0.415, 1,    234.899,   -0.7,   0.98038, 2,    234.899, -120.7,   0.98038, 3,    234.899,  119.3,   0.98038
"ALMEDABUS", 0.415, 1,    233.872,   -0.8,   0.97609, 2,    233.872, -120.8,   0.97609, 3,    233.872,  119.2,   0.97609
"PATILBUS", 0.415, 1,    234.208,   -0.7,   0.97749, 2,    234.208, -120.7,   0.97749, 3,    234.208,  119.3,   0.97749
"PUROHITBUS", 0.415, 1,    233.547,   -0.8,   0.97474, 2,    233.547, -120.8,   0.97474, 3,    233.547,  119.2,   0.97474
"BHARDWAJBUS", 0.415, 1,    234.006,   -0.7,   0.97665, 2,    234.006, -120.7,   0.97665, 3,    234.006,  119.3,   0.97665
"MAHALAXMI_DEVBUS", 0.415, 1,    234.475,   -0.7,   0.97861, 2,    234.475, -120.7,   0.97861, 3,    234.475,  119.3,   0.97861
"KEDARBUS", 0.415, 1,    233.471,   -0.8,   0.97442, 2,    233.471, -120.8,   0.97442, 3,    233.471,  119.2,   0.97442
"DESSAI_SANTOBABUS", 0.415, 1,    234.982,   -0.6,   0.98072, 2,    234.982, -120.6,   0.98072, 3,    234.982,  119.4,   0.98072
"RANI_CONSTRUCTIONBUS", 0.415, 1,    234.014,   -0.7,   0.97669, 2,    234.014, -120.7,   0.97669, 3,    234.014,  119.3,   0.97669
"MAHARUDRABUS", 0.415, 1,    234.476,   -0.7,   0.97861, 2,    234.476, -120.7,   0.97861, 3,    234.476,  119.3,   0.97861
"RAVINAGARBUS", 0.415, 1,     233.39,   -0.8,   0.97408, 2,     233.39, -120.8,   0.97408, 3,     233.39,  119.2,   0.97408
"FRIENDS_COLONYBUS", 0.415, 1,    233.324,   -0.8,    0.9738, 2,    233.324, -120.8,    0.9738, 3,    233.324,  119.2,    0.9738
"KHADPABANDH_GARDEN_IIBUS", 0.415, 1,    235.322,   -0.5,   0.98215, 2,    235.322, -120.5,   0.98215, 3,    235.322,  119.5,   0.98215
"KHADPABANDH_GARDEN_IBUS", 0.415, 1,    234.785,   -0.6,    0.9799, 2,    234.785, -120.6,    0.9799, 3,    234.785,  119.4,    0.9799
"SPORTS_COMPLEXBUS", 0.415, 1,    237.158,   -0.3,   0.98981, 2,    237.158, -120.3,   0.98981, 3,    237.158,  119.7,   0.98981
"BHAGWATI_IBUS", 0.415, 1,    233.199,   -0.8,   0.97328, 2,    233.199, -120.8,   0.97328, 3,    233.199,  119.2,   0.97328
"BHAGWATI_IIBUS", 0.415, 1,    233.208,   -0.8,   0.97332, 2,    233.208, -120.8,   0.97332, 3,    233.208,  119.2,   0.97332
"SEWERAGE_HTCBUS", 0.415, 1,    236.572,   -0.3,   0.98736, 2,    236.572, -120.3,   0.98736, 3,    236.572,  119.7,   0.98736
"SPORTS_COMPLEX_HTCBUS", 0.415, 1,    237.267,   -0.3,   0.99026, 2,    237.267, -120.3,   0.99026, 3,    237.267,  119.7,   0.99026
"SUNGRACE_HTCBUS", 0.415, 1,    237.289,   -0.3,   0.99035, 2,    237.289, -120.3,   0.99035, 3,    237.289,  119.7,   0.99035
"HAVELI_PANCHAYAT", 11, 1,    6326.21,   -0.2,   0.99612, 2,    6326.21, -120.2,   0.99612, 3,    6326.21,  119.8,   0.99612
"MILITARY_HTC", 11, 1,    6320.37,   -0.2,    0.9952, 2,    6320.37, -120.2,    0.9952, 3,    6320.37,  119.8,    0.9952
"3W_SPORTS_COMPLEX", 11, 1,    6308.88,   -0.2,   0.99339, 2,    6308.88, -120.2,   0.99339, 3,    6308.88,  119.8,   0.99339
"MILITARY_GATE", 11, 1,    6308.68,   -0.2,   0.99336, 2,    6308.68, -120.2,   0.99336, 3,    6308.68,  119.8,   0.99336
"3_WAY_SAFA_MASJID", 11, 1,    6304.74,   -0.2,   0.99274, 2,    6304.74, -120.2,   0.99274, 3,    6304.74,  119.8,   0.99274
"RTO_OFFICE_NEW", 11, 1,    6304.71,   -0.2,   0.99273, 2,    6304.71, -120.2,   0.99273, 3,    6304.71,  119.8,   0.99273
"CHIRPUTEM_SCHOOL", 11, 1,    6304.67,   -0.2,   0.99273, 2,    6304.67, -120.2,   0.99273, 3,    6304.67,  119.8,   0.99273
"2W_KAPAT", 11, 1,    6304.67,   -0.2,   0.99273, 2,    6304.67, -120.2,   0.99273, 3,    6304.67,  119.8,   0.99273
"SHAPUR", 11, 1,    6302.79,   -0.2,   0.99243, 2,    6302.79, -120.2,   0.99243, 3,    6302.79,  119.8,   0.99243
"3_WAY_AMBEGAL", 11, 1,    6300.89,   -0.2,   0.99213, 2,    6300.89, -120.2,   0.99213, 3,    6300.89,  119.8,   0.99213
"4_WAY_AMBEGAL", 11, 1,    6299.56,   -0.2,   0.99192, 2,    6299.56, -120.2,   0.99192, 3,    6299.56,  119.8,   0.99192
"AMBEGAL", 11, 1,     6299.4,   -0.2,    0.9919, 2,     6299.4, -120.2,    0.9919, 3,     6299.4,  119.8,    0.9919
"PATANTALI", 11, 1,    6299.25,   -0.2,   0.99187, 2,    6299.25, -120.2,   0.99187, 3,    6299.25,  119.8,   0.99187
"PANAKAJ_BUILDERS", 11, 1,    6296.93,   -0.2,   0.99151, 2,    6296.93, -120.2,   0.99151, 3,    6296.93,  119.8,   0.99151
"KASHIMATH", 11, 1,    6293.09,   -0.2,    0.9909, 2,    6293.09, -120.2,    0.9909, 3,    6293.09,  119.8,    0.9909
"3_WAY_KASHIMATH", 11, 1,    6292.66,   -0.2,   0.99084, 2,    6292.66, -120.2,   0.99084, 3,    6292.66,  119.8,   0.99084
"2_WAY_NAGESHI", 11, 1,    6292.66,   -0.2,   0.99084, 2,    6292.66, -120.2,   0.99084, 3,    6292.66,  119.8,   0.99084
"GVMS", 11, 1,    6288.33,   -0.2,   0.99016, 2,    6288.33, -120.2,   0.99016, 3,    6288.33,  119.8,   0.99016
"SAHAKARI", 11, 1,    6286.44,   -0.2,   0.98986, 2,    6286.44, -120.2,   0.98986, 3,    6286.44,  119.8,   0.98986
"IMA", 11, 1,    6284.85,   -0.2,   0.98961, 2,    6284.85, -120.2,   0.98961, 3,    6284.85,  119.8,   0.98961
"SHIVNAGARI", 11, 1,    6282.18,   -0.2,   0.98919, 2,    6282.18, -120.2,   0.98919, 3,    6282.18,  119.8,   0.98919
"4_WAY_PES", 11, 1,    6280.82,   -0.2,   0.98897, 2,    6280.82, -120.2,   0.98897, 3,    6280.82,  119.8,   0.98897
"PES", 11, 1,     6280.7,   -0.2,   0.98895, 2,     6280.7, -120.2,   0.98895, 3,     6280.7,  119.8,   0.98895
"3_WAY_POLICE_OUTPOST", 11, 1,    6280.61,   -0.2,   0.98894, 2,    6280.61, -120.2,   0.98894, 3,    6280.61,  119.8,   0.98894
"CONEM_I_HIGHWAY", 11, 1,    6280.48,   -0.2,   0.98892, 2,    6280.48, -120.2,   0.98892, 3,    6280.48,  119.8,   0.98892
"2_WAY_CONEM_HIGHWAY", 11, 1,     6280.4,   -0.2,   0.98891, 2,     6280.4, -120.2,   0.98891, 3,     6280.4,  119.8,   0.98891
"CONEM_II", 11, 1,    6280.37,   -0.2,    0.9889, 2,    6280.37, -120.2,    0.9889, 3,    6280.37,  119.8,    0.9889
"GANESH_TEMPLE", 11, 1,    6280.73,   -0.2,   0.98896, 2,    6280.73, -120.2,   0.98896, 3,    6280.73,  119.8,   0.98896
"NAGESHI", 11, 1,    6280.73,   -0.2,   0.98896, 2,    6280.73, -120.2,   0.98896, 3,    6280.73,  119.8,   0.98896
"GTDC_TOURIST", 11, 1,    6280.65,   -0.2,   0.98895, 2,    6280.65, -120.2,   0.98895, 3,    6280.65,  119.8,   0.98895
"4_WAY_HOUSINGBOARD", 11, 1,    6276.58,   -0.2,   0.98831, 2,    6276.58, -120.2,   0.98831, 3,    6276.58,  119.8,   0.98831
"SAAD_PHASE_II", 11, 1,    6276.49,   -0.2,   0.98829, 2,    6276.49, -120.2,   0.98829, 3,    6276.49,  119.8,   0.98829
"SUNRISE_CASHEW", 11, 1,    6276.25,   -0.2,   0.98825, 2,    6276.25, -120.2,   0.98825, 3,    6276.25,  119.8,   0.98825
"SAAD_I", 11, 1,    6275.66,   -0.2,   0.98816, 2,    6275.66, -120.2,   0.98816, 3,    6275.66,  119.8,   0.98816
"SAAD_II", 11, 1,     6275.6,   -0.2,   0.98815, 2,     6275.6, -120.2,   0.98815, 3,     6275.6,  119.8,   0.98815
"GEC_BANDORA", 11, 1,    6275.54,   -0.2,   0.98814, 2,    6275.54, -120.2,   0.98814, 3,    6275.54,  119.8,   0.98814
"3_WAY_KATAMGAL", 11, 1,    6275.12,   -0.2,   0.98807, 2,    6275.12, -120.2,   0.98807, 3,    6275.12,  119.8,   0.98807
"NIT_HTC", 11, 1,    6275.07,   -0.2,   0.98807, 2,    6275.07, -120.2,   0.98807, 3,    6275.07,  119.8,   0.98807
"KATMGAAL", 11, 1,    6275.06,   -0.2,   0.98807, 2,    6275.06, -120.2,   0.98807, 3,    6275.06,  119.8,   0.98807
"ITI_HTC", 11, 1,    6275.06,   -0.2,   0.98807, 2,    6275.06, -120.2,   0.98807, 3,    6275.06,  119.8,   0.98807
"HOUSING_BOARD_NEW", 11, 1,    6276.37,   -0.2,   0.98827, 2,    6276.37, -120.2,   0.98827, 3,    6276.37,  119.8,   0.98827
"HOUSING_BOARD_I", 11, 1,    6276.33,   -0.2,   0.98827, 2,    6276.33, -120.2,   0.98827, 3,    6276.33,  119.8,   0.98827
"3_WAY_HOUSINGBOARD", 11, 1,    6276.39,   -0.2,   0.98828, 2,    6276.39, -120.2,   0.98828, 3,    6276.39,  119.8,   0.98828
"AMBEGAL_II", 11, 1,    6299.26,   -0.2,   0.99188, 2,    6299.26, -120.2,   0.99188, 3,    6299.26,  119.8,   0.99188
"SHAPURBUS", 0.415, 1,    234.815,   -0.7,   0.98003, 2,    234.815, -120.7,   0.98003, 3,    234.815,  119.3,   0.98003
"AMBEGALBUS", 0.415, 1,    234.686,   -0.7,   0.97949, 2,    234.686, -120.7,   0.97949, 3,    234.686,  119.3,   0.97949
"PATANTALIBUS", 0.415, 1,    234.176,   -0.7,   0.97736, 2,    234.176, -120.7,   0.97736, 3,    234.176,  119.3,   0.97736
"PANAKAJ_BUILDERSBUS", 0.415, 1,    234.591,   -0.7,   0.97909, 2,    234.591, -120.7,   0.97909, 3,    234.591,  119.3,   0.97909
"KASHIMATHBUS", 0.415, 1,    234.445,   -0.7,   0.97848, 2,    234.445, -120.7,   0.97848, 3,    234.445,  119.3,   0.97848
"GVMSBUS", 0.415, 1,    236.478,   -0.3,   0.98697, 2,    236.478, -120.3,   0.98697, 3,    236.478,  119.7,   0.98697
"SAHAKARIBUS", 0.415, 1,    234.191,   -0.7,   0.97742, 2,    234.191, -120.7,   0.97742, 3,    234.191,  119.3,   0.97742
"IMABUS", 0.415, 1,    236.565,   -0.3,   0.98733, 2,    236.565, -120.3,   0.98733, 3,    236.565,  119.7,   0.98733
"SHIVNAGARIBUS", 0.415, 1,    233.013,   -0.8,   0.97251, 2,    233.013, -120.8,   0.97251, 3,    233.013,  119.2,   0.97251
"GANESH_TEMPLEBUS", 0.415, 1,    232.957,   -0.8,   0.97228, 2,    232.957, -120.8,   0.97228, 3,    232.957,  119.2,   0.97228
"GTDC_TOURISTBUS", 0.415, 1,    236.078,   -0.4,    0.9853, 2,    236.078, -120.4,    0.9853, 3,    236.078,  119.6,    0.9853
"PESBUS", 0.415, 1,    236.079,   -0.4,    0.9853, 2,    236.079, -120.4,    0.9853, 3,    236.079,  119.6,    0.9853
"SUNRISE_CASHEWBUS", 0.415, 1,    236.021,   -0.4,   0.98506, 2,    236.021, -120.4,   0.98506, 3,    236.021,  119.6,   0.98506
"HOUSING_BOARD_NEWBUS", 0.415, 1,     234.31,   -0.6,   0.97792, 2,     234.31, -120.6,   0.97792, 3,     234.31,  119.4,   0.97792
"HOUSING_BOARD_IBUS", 0.415, 1,    233.804,   -0.7,   0.97581, 2,    233.804, -120.7,   0.97581, 3,    233.804,  119.3,   0.97581
"SAAD_PHASE_IIBUS", 0.415, 1,    234.314,   -0.6,   0.97794, 2,    234.314, -120.6,   0.97794, 3,    234.314,  119.4,   0.97794
"SAAD_IBUS", 0.415, 1,    233.779,   -0.7,    0.9757, 2,    233.779, -120.7,    0.9757, 3,    233.779,  119.3,    0.9757
"SAAD_IIBUS", 0.415, 1,    233.776,   -0.7,   0.97569, 2,    233.776, -120.7,   0.97569, 3,    233.776,  119.3,   0.97569
"KATMGAALBUS", 0.415, 1,    233.756,   -0.7,   0.97561, 2,    233.756, -120.7,   0.97561, 3,    233.756,  119.3,   0.97561
"CONEM_IIBUS", 0.415, 1,    233.958,   -0.7,   0.97645, 2,    233.958, -120.7,   0.97645, 3,    233.958,  119.3,   0.97645
"CONEM_I_HIGHWAYBUS", 0.415, 1,    233.962,   -0.7,   0.97647, 2,    233.962, -120.7,   0.97647, 3,    233.962,  119.3,   0.97647
"NIT_HTCBUS", 0.415, 1,    236.305,   -0.3,   0.98625, 2,    236.305, -120.3,   0.98625, 3,    236.305,  119.7,   0.98625
"ITI_HTCBUS", 0.415, 1,    236.085,   -0.3,   0.98533, 2,    236.085, -120.3,   0.98533, 3,    236.085,  119.7,   0.98533
"CHIRPUTEM_SCHOOLBUS", 0.415, 1,    237.097,   -0.3,   0.98955, 2,    237.097, -120.3,   0.98955, 3,    237.097,  119.7,   0.98955
"RTO_OFFICE_NEWBUS", 0.415, 1,    236.989,   -0.3,    0.9891, 2,    236.989, -120.3,    0.9891, 3,    236.989,  119.7,    0.9891
"AMBEGAL_IIBUS", 0.415, 1,    233.669,   -0.8,   0.97524, 2,    233.669, -120.8,   0.97524, 3,    233.669,  119.2,   0.97524
"MILITARY_GATEBUS", 0.415, 1,     235.04,   -0.7,   0.98097, 2,     235.04, -120.7,   0.98097, 3,     235.04,  119.3,   0.98097
